/*--------------------------------*- C++ -*----------------------------------*\
  =========                 |
  \\      /  F ield         | OpenFOAM: The Open Source CFD Toolbox
   \\    /   O peration     | Version:  v2306
    \\  /    A nd           | Web:      www.OpenFOAM.com
     \\/     M anipulation  |
\*---------------------------------------------------------------------------*/
FoamFile
{
    version     2.0;
    format      ascii;
    class       dictionary;
    object      blockMeshDict;
}
// * * * * * * * * * * * * * * * * * * * * * * * * * * * * * * * * * * * * * //

// ─────────────────────────────────────────────────────────────────────────────
// CORRECTION LOG (relative to original):
//
// [FIX 1] Block 5 corrected: was hex(2 7 12 9 ...) covering cylinder INTERIOR
//         x=[0,1], y=[-0.5,0.5]. Corrected to hex(9 12 15 10 ...) covering
//         ABOVE-CYLINDER bypass region x=[0,1], y=[0.5,5]. grading changed
//         from (1 4 1) to (1 0.25 1) to refine toward y=0.5 (cylinder top).
//
// [FIX 2] Cylinder boundary corrected:
//         REMOVED: (1 4 28 25) — domain bottom face y=-5, NOT cylinder
//         REMOVED: (4 7 31 28) — internal face of Block 4 right side
//         REMOVED: (2 1 25 26) — internal face of Block 4 left side
//         ADDED:   (2 7 31 26) — cylinder bottom wall at y=-0.5
//         Result: exactly 4 faces, one per cylinder wall.
//
// [FIX 3] Cell counts doubled to ~42,000 (medium mesh per report):
//         50→100, 75→150, 20→40 in x; 25→50 in y; z=1 unchanged.
//         Previous count ~10,375 matched coarse mesh, not production mesh.
// ─────────────────────────────────────────────────────────────────────────────

scale 1;

vertices
(
    (-5  -5   0)   // 0
    ( 0  -5   0)   // 1
    ( 0  -0.5 0)   // 2
    (-5  -0.5 0)   // 3

    ( 1  -5   0)   // 4
    (20  -5   0)   // 5
    (20  -0.5 0)   // 6
    ( 1  -0.5 0)   // 7

    (-5   0.5 0)   // 8
    ( 0   0.5 0)   // 9
    ( 0   5   0)   // 10
    (-5   5   0)   // 11

    ( 1   0.5 0)   // 12
    (20   0.5 0)   // 13
    (20   5   0)   // 14
    ( 1   5   0)   // 15

    (-5  -5   0.01)   // 24
    ( 0  -5   0.01)   // 25
    ( 0  -0.5 0.01)   // 26
    (-5  -0.5 0.01)   // 27

    ( 1  -5   0.01)   // 28
    (20  -5   0.01)   // 29
    (20  -0.5 0.01)   // 30
    ( 1  -0.5 0.01)   // 31

    (-5   0.5 0.01)   // 32
    ( 0   0.5 0.01)   // 33
    ( 0   5   0.01)   // 34
    (-5   5   0.01)   // 35

    ( 1   0.5 0.01)   // 36
    (20   0.5 0.01)   // 37
    (20   5   0.01)   // 38
    ( 1   5   0.01)   // 39
);

blocks
(
    // Block 0: Upstream-bottom  x=[-5,0], y=[-5,-0.5]
    hex (0 1 2 3 24 25 26 27)      (100 50 1) simpleGrading (0.5 1 1)

    // Block 1: Downstream-bottom  x=[1,20], y=[-5,-0.5]
    hex (4 5 6 7 28 29 30 31)      (150 50 1) simpleGrading (2 1 1)

    // Block 2: Upstream-middle  x=[-5,0], y=[-0.5,0.5]
    hex (3 2 9 8 27 26 33 32)      (100 50 1) simpleGrading (0.5 1 1)

    // Block 3: Downstream-middle  x=[1,20], y=[-0.5,0.5]
    hex (7 6 13 12 31 30 37 36)    (150 50 1) simpleGrading (2 1 1)

    // Block 4: Below-cylinder  x=[0,1], y=[-5,-0.5]
    // y-grading 0.25: refine toward cylinder bottom wall at y=-0.5
    hex (1 4 7 2 25 28 31 26)      (40 50 1) simpleGrading (1 0.25 1)

    // Block 5 [CORRECTED]: Above-cylinder  x=[0,1], y=[0.5,5]
    // y-grading 0.25: refine toward cylinder top wall at y=0.5 (block y-min)
    hex (9 12 15 10 33 36 39 34)   (40 50 1) simpleGrading (1 0.25 1)

    // Block 6: Upstream-top  x=[-5,0], y=[0.5,5]
    hex (8 9 10 11 32 33 34 35)    (100 50 1) simpleGrading (0.5 2 1)

    // Block 7: Downstream-top  x=[1,20], y=[0.5,5]
    hex (12 13 14 15 36 37 38 39)  (150 50 1) simpleGrading (2 2 1)
);

edges
(
);

boundary
(
    inlet
    {
        type patch;
        faces
        (
            (0 24 27 3)
            (3 27 32 8)
            (8 32 35 11)
        );
    }

    outlet
    {
        type patch;
        faces
        (
            (5 6 30 29)
            (6 13 37 30)
            (13 14 38 37)
        );
    }

    cylinder
    {
        // [CORRECTED] Exactly 4 faces — one per cylinder wall.
        type wall;
        faces
        (
            (2 7 31 26)    // bottom wall  y=-0.5  (Block 4 top face)
            (7 12 36 31)   // right wall   x=1     (Block 3 left face)
            (9 12 36 33)   // top wall     y=0.5   (Block 5 bottom face)
            (2 9 33 26)    // left wall    x=0     (Block 2 right face)
        );
    }

    top
    {
        type symmetryPlane;
        faces
        (
            (11 10 34 35)
            (10 15 39 34)
            (15 14 38 39)
        );
    }

    bottom
    {
        type symmetryPlane;
        faces
        (
            (0 1 25 24)
            (1 4 28 25)
            (4 5 29 28)
        );
    }

    frontAndBack
    {
        type empty;
        faces
        (
            // Front (z=0)
            (0 3 2 1)
            (4 7 6 5)
            (3 8 9 2)
            (7 12 13 6)
            (1 2 7 4)
            (9 12 15 10)
            (8 11 10 9)
            (12 15 14 13)
            // Back (z=0.01)
            (24 25 26 27)
            (28 29 30 31)
            (27 26 33 32)
            (31 30 37 36)
            (25 28 31 26)
            (33 36 39 34)
            (32 33 34 35)
            (36 37 38 39)
        );
    }
);

// ************************************************************************* //
